Version 4
SHEET 1 1344 680
WIRE -704 -416 -800 -416
WIRE -656 -416 -704 -416
WIRE -800 -384 -800 -416
WIRE -704 -320 -704 -416
WIRE -48 -240 -192 -240
WIRE 176 -240 32 -240
WIRE -800 -208 -800 -304
WIRE -800 -208 -928 -208
WIRE -704 -208 -704 -256
WIRE -704 -208 -800 -208
WIRE -704 -160 -704 -208
WIRE -192 -112 -192 -240
WIRE -48 -112 -192 -112
WIRE 176 -112 176 -240
WIRE 176 -112 16 -112
WIRE 464 -112 384 -112
WIRE 640 -112 544 -112
WIRE -800 -96 -800 -208
WIRE -32 -32 -48 -32
WIRE 528 -16 512 -16
WIRE -800 0 -800 -16
WIRE -704 0 -704 -96
WIRE -704 0 -800 0
WIRE -656 0 -704 0
WIRE -32 16 -32 -32
WIRE -320 32 -384 32
WIRE -192 32 -192 -112
WIRE -192 32 -240 32
WIRE -48 32 -192 32
WIRE 528 32 528 -16
WIRE 176 48 176 -112
WIRE 176 48 16 48
WIRE 240 48 176 48
WIRE 384 48 384 -112
WIRE 384 48 320 48
WIRE 512 48 384 48
WIRE -48 64 -192 64
WIRE 640 64 640 -112
WIRE 640 64 576 64
WIRE 720 64 640 64
WIRE 864 64 800 64
WIRE 512 80 368 80
WIRE -704 128 -800 128
WIRE -192 128 -192 64
WIRE -32 144 -32 80
WIRE -32 144 -48 144
WIRE 368 144 368 80
WIRE 528 160 528 96
WIRE 528 160 512 160
WIRE -800 192 -800 128
WIRE -192 272 -192 208
WIRE 368 288 368 224
WIRE -800 368 -800 272
FLAG -928 -208 0
FLAG -800 368 0
FLAG -192 272 0
FLAG -704 128 Iin
IOPIN -704 128 Out
FLAG -384 32 Iin
IOPIN -384 32 In
FLAG -656 -416 VEE
IOPIN -656 -416 Out
FLAG -656 0 VCC
IOPIN -656 0 Out
FLAG -48 -32 VCC
IOPIN -48 -32 In
FLAG -48 144 VEE
IOPIN -48 144 In
FLAG 368 288 0
FLAG 512 -16 VCC
IOPIN 512 -16 In
FLAG 512 160 VEE
IOPIN 512 160 In
FLAG 864 64 Vout
IOPIN 864 64 Out
SYMBOL OpAmps\\ADA4530-1 -16 48 R0
SYMATTR InstName U1
SYMBOL voltage -800 0 R180
WINDOW 123 0 0 Left 0
WINDOW 39 0 0 Left 0
SYMATTR InstName V1
SYMATTR Value 5V
SYMBOL voltage -800 -288 R180
WINDOW 123 0 0 Left 0
WINDOW 39 0 0 Left 0
SYMATTR InstName V2
SYMATTR Value 5V
SYMBOL current -800 192 R0
WINDOW 3 20 93 Left 2
WINDOW 123 0 0 Left 0
WINDOW 39 0 0 Left 0
SYMATTR Value PULSE(100f -5n 10m 1u 1u 2m 4m)
SYMATTR InstName I1
SYMBOL cap 16 -128 R90
WINDOW 0 -10 33 VBottom 2
WINDOW 3 32 32 VTop 2
SYMATTR InstName Cf
SYMATTR Value 1p
SYMBOL res -208 112 R0
SYMATTR InstName Rs1
SYMATTR Value 0
SYMBOL res -224 16 R90
WINDOW 0 0 56 VBottom 2
WINDOW 3 32 56 VTop 2
SYMATTR InstName Rin
SYMATTR Value 1G
SYMBOL res 48 -256 R90
WINDOW 0 0 56 VBottom 2
WINDOW 3 32 56 VTop 2
SYMATTR InstName Rf1
SYMATTR Value 1G
SYMATTR SpiceLine tol=1 pwr=1
SYMBOL cap -720 -320 R0
SYMATTR InstName C2
SYMATTR Value 0.1µ
SYMBOL cap -720 -160 R0
SYMATTR InstName C1
SYMATTR Value 0.1µ
SYMBOL OpAmps\\ADA4530-1 544 64 R0
SYMATTR InstName U2
SYMBOL res 352 128 R0
SYMATTR InstName Rs2
SYMATTR Value 0
SYMBOL res 336 32 R90
WINDOW 0 0 56 VBottom 2
WINDOW 3 32 56 VTop 2
SYMATTR InstName Rin1
SYMATTR Value 1k
SYMBOL res 560 -128 R90
WINDOW 0 0 56 VBottom 2
WINDOW 3 32 56 VTop 2
SYMATTR InstName Rf3
SYMATTR Value 1k
SYMATTR SpiceLine tol=1 pwr=1
SYMBOL res 816 48 R90
WINDOW 0 0 56 VBottom 2
WINDOW 3 32 56 VTop 2
SYMATTR InstName Rout
SYMATTR Value 499
TEXT -928 232 Left 2 !.tran 1
TEXT -136 352 Left 2 ;Femto-Ammeter (FAM - ADA4530-1) v1.0
